Version 4.1
SHEET 1 2456 856
WIRE 896 -1216 896 -1248
WIRE 800 -1136 784 -1136
WIRE 1024 -1136 992 -1136
WIRE 1136 -1136 1104 -1136
WIRE 800 -1072 736 -1072
WIRE 832 -928 832 -960
WIRE 960 -928 960 -960
WIRE 912 -720 912 -752
WIRE 784 -640 784 -1136
WIRE 816 -640 784 -640
WIRE 1040 -640 1008 -640
WIRE 1136 -640 1136 -1136
WIRE 1136 -640 1120 -640
WIRE 816 -576 752 -576
WIRE 848 -432 848 -464
WIRE 976 -432 976 -464
WIRE 928 -336 928 -368
WIRE 784 -256 784 -640
WIRE 832 -256 784 -256
WIRE 1056 -256 1024 -256
WIRE 1136 -256 1136 -640
WIRE 832 -192 768 -192
WIRE 864 -48 864 -80
WIRE 992 -48 992 -80
WIRE 912 16 912 -16
WIRE 784 96 784 -256
WIRE 816 96 784 96
WIRE 1056 96 1008 96
WIRE 1136 96 1136 -256
WIRE 464 144 288 144
WIRE 576 144 528 144
WIRE 816 160 752 160
WIRE 1616 176 1392 176
WIRE 1936 176 1696 176
WIRE 464 256 384 256
WIRE 576 256 576 144
WIRE 576 256 544 256
WIRE -448 288 -576 288
WIRE -224 304 -384 304
WIRE -192 304 -224 304
WIRE 32 304 -112 304
WIRE 848 304 848 272
WIRE 976 304 976 272
WIRE 1392 304 1392 176
WIRE 1392 304 1344 304
WIRE 1440 304 1392 304
WIRE 1568 304 1520 304
WIRE 1616 304 1568 304
WIRE 1744 304 1696 304
WIRE 1792 304 1744 304
WIRE 1936 304 1936 176
WIRE 1936 304 1872 304
WIRE 2000 304 1936 304
WIRE 2160 304 2080 304
WIRE -448 320 -480 320
WIRE 1744 336 1744 304
WIRE -112 352 -112 304
WIRE -48 352 -112 352
WIRE -480 368 -480 320
WIRE -304 368 -480 368
WIRE -224 368 -224 304
WIRE 112 368 112 304
WIRE 112 368 16 368
WIRE 176 368 112 368
WIRE 288 368 288 144
WIRE 288 368 256 368
WIRE 320 368 288 368
WIRE 384 368 384 256
WIRE 416 368 384 368
WIRE -576 384 -576 288
WIRE -48 384 -112 384
WIRE 576 384 576 256
WIRE 576 384 480 384
WIRE 672 384 576 384
WIRE 784 384 784 96
WIRE 784 384 752 384
WIRE 816 384 784 384
WIRE -736 400 -800 400
WIRE -624 400 -736 400
WIRE -480 400 -480 368
WIRE 288 400 288 368
WIRE 416 400 384 400
WIRE 1136 400 1136 96
WIRE 1136 400 880 400
WIRE 1344 400 1344 304
WIRE 1344 400 1136 400
WIRE 816 416 784 416
WIRE 384 432 384 400
WIRE -624 448 -704 448
WIRE 784 448 784 416
WIRE 1568 448 1568 304
WIRE 1616 448 1568 448
WIRE 1744 448 1744 400
WIRE 1744 448 1680 448
WIRE -800 496 -800 400
WIRE -480 496 -480 480
WIRE 1936 496 1936 304
WIRE 2016 496 1936 496
WIRE 288 512 288 480
WIRE 2160 512 2160 304
WIRE 2160 512 2080 512
WIRE 2192 512 2160 512
WIRE -576 528 -576 464
WIRE -400 528 -576 528
WIRE 2016 528 1936 528
WIRE -400 544 -400 528
WIRE 1568 544 1568 448
WIRE 1632 544 1568 544
WIRE 1744 560 1744 448
WIRE 1744 560 1696 560
WIRE 1936 560 1936 528
WIRE -576 576 -576 528
WIRE -560 576 -576 576
WIRE 1632 576 1568 576
WIRE -736 592 -736 400
WIRE -608 592 -736 592
WIRE 1568 624 1568 576
WIRE -704 640 -704 448
WIRE -608 640 -704 640
WIRE -704 688 -704 640
WIRE -560 720 -560 656
WIRE -112 720 -112 384
WIRE -112 720 -560 720
FLAG -480 496 0
FLAG -416 336 +5
FLAG -416 272 -5
FLAG -16 400 -5
FLAG -16 336 +5
FLAG -704 688 0
FLAG -800 576 0
FLAG -400 624 0
FLAG -784 256 +5
FLAG -672 256 -5
FLAG -784 336 0
FLAG -672 336 0
FLAG 384 432 0
FLAG 288 512 0
FLAG 448 352 +5
FLAG 448 416 -5
FLAG 784 448 0
FLAG 848 368 +5
FLAG 848 432 -5
FLAG 48 -208 S4
FLAG 208 -208 S3
FLAG 400 -208 S2
FLAG 544 -208 S1
FLAG 48 -128 0
FLAG 208 -128 0
FLAG 400 -128 0
FLAG 544 -128 0
FLAG 960 -928 0
FLAG 896 -1248 +5
FLAG 832 -928 -5
FLAG 736 -1072 S4
FLAG 976 -432 0
FLAG 912 -752 +5
FLAG 848 -432 -5
FLAG 752 -576 S3
FLAG 992 -48 0
FLAG 928 -368 +5
FLAG 864 -48 -5
FLAG 768 -192 S2
FLAG 976 304 0
FLAG 912 -16 +5
FLAG 848 304 -5
FLAG 752 160 S1
FLAG 1936 560 0
FLAG 2192 512 Vout
FLAG 2048 480 V+
FLAG 2048 544 V-
FLAG 1664 528 V+
FLAG 1664 592 V-
FLAG 1568 624 0
DATAFLAG -80 304 ""
DATAFLAG -576 336 ""
DATAFLAG -528 720 ""
DATAFLAG 112 336 ""
DATAFLAG -320 304 ""
DATAFLAG -512 288 ""
DATAFLAG -464 528 ""
DATAFLAG -480 384 ""
DATAFLAG -400 368 ""
DATAFLAG -704 400 ""
DATAFLAG -688 448 ""
DATAFLAG -688 592 ""
DATAFLAG -80 384 ""
DATAFLAG 2176 512 ""
DATAFLAG -800 480 ""
SYMBOL OpAmps\\OP482 -416 368 M180
SYMATTR InstName U1
SYMBOL OpAmps\\OP482 -16 304 R0
SYMATTR InstName U2
SYMBOL res -496 384 R0
SYMATTR InstName R1
SYMATTR Value 1k
SYMBOL res -208 352 R90
WINDOW 0 0 56 VBottom 2
WINDOW 3 32 56 VTop 2
SYMATTR InstName R2
SYMATTR Value 1k
SYMBOL res -96 288 R90
WINDOW 0 0 56 VBottom 2
WINDOW 3 32 56 VTop 2
SYMATTR InstName R3
SYMATTR Value 1k
SYMBOL res 128 288 R90
WINDOW 0 0 56 VBottom 2
WINDOW 3 32 56 VTop 2
SYMATTR InstName R4
SYMATTR Value 1k
SYMBOL e -560 560 R0
SYMATTR InstName E1
SYMATTR Value -0.5
SYMBOL e -576 368 R0
SYMATTR InstName E2
SYMATTR Value -0.5
SYMBOL voltage -800 480 R0
WINDOW 123 24 124 Left 2
WINDOW 39 0 0 Left 0
WINDOW 3 24 44 Left 2
SYMATTR Value2 AC 1
SYMATTR Value ""
SYMATTR InstName V1
SYMBOL voltage -400 528 R0
WINDOW 123 24 124 Left 2
WINDOW 39 0 0 Left 0
SYMATTR Value2 AC 0
SYMATTR InstName Vicm1
SYMATTR Value ""
SYMBOL voltage -784 240 R0
SYMATTR InstName V2
SYMATTR Value 5
SYMBOL voltage -672 240 R0
SYMATTR InstName V3
SYMATTR Value -5
SYMBOL OpAmps\\OP482 448 320 R0
SYMATTR InstName U3
SYMBOL cap 384 352 R90
WINDOW 0 0 32 VBottom 2
WINDOW 3 32 32 VTop 2
SYMATTR InstName C1
SYMATTR Value 1n
SYMBOL res 272 384 R0
SYMATTR InstName R5
SYMATTR Value 3.9k
SYMBOL res 272 352 R90
WINDOW 0 0 56 VBottom 2
WINDOW 3 32 56 VTop 2
SYMATTR InstName R6
SYMATTR Value 20k
SYMBOL res 560 240 R90
WINDOW 0 0 56 VBottom 2
WINDOW 3 32 56 VTop 2
SYMATTR InstName R7
SYMATTR Value 39k
SYMBOL cap 528 128 R90
WINDOW 0 0 32 VBottom 2
WINDOW 3 32 32 VTop 2
SYMATTR InstName C2
SYMATTR Value 1n
SYMBOL OpAmps\\OP482 848 336 R0
SYMATTR InstName U4
SYMBOL res 768 368 R90
WINDOW 0 0 56 VBottom 2
WINDOW 3 32 56 VTop 2
SYMATTR InstName R8
SYMATTR Value 2k
SYMBOL res 1152 80 R90
WINDOW 0 0 56 VBottom 2
WINDOW 3 32 56 VTop 2
SYMATTR InstName R9
SYMATTR Value 4.7k
SYMBOL res 1152 -272 R90
WINDOW 0 0 56 VBottom 2
WINDOW 3 32 56 VTop 2
SYMATTR InstName R10
SYMATTR Value 5.6k
SYMBOL res 1136 -656 R90
WINDOW 0 0 56 VBottom 2
WINDOW 3 32 56 VTop 2
SYMATTR InstName R11
SYMATTR Value 7.5k
SYMBOL res 1120 -1152 R90
WINDOW 0 0 56 VBottom 2
WINDOW 3 32 56 VTop 2
SYMATTR InstName R12
SYMATTR Value 9.1k
SYMBOL voltage 48 -224 R0
WINDOW 123 0 0 Left 0
WINDOW 39 0 0 Left 0
SYMATTR InstName V7
SYMATTR Value 5
SYMBOL voltage 208 -224 R0
WINDOW 123 0 0 Left 0
WINDOW 39 0 0 Left 0
SYMATTR InstName V8
SYMATTR Value 0
SYMBOL voltage 400 -224 R0
WINDOW 123 0 0 Left 0
WINDOW 39 0 0 Left 0
SYMATTR InstName V9
SYMATTR Value 0
SYMBOL voltage 544 -224 R0
WINDOW 123 0 0 Left 0
WINDOW 39 0 0 Left 0
SYMATTR InstName V10
SYMATTR Value 0
SYMBOL Switches\\ADG601 896 -1088 R0
SYMATTR InstName U5
SYMBOL Switches\\ADG601 912 -592 R0
SYMATTR InstName U6
SYMBOL Switches\\ADG601 928 -208 R0
SYMATTR InstName U7
SYMBOL Switches\\ADG601 912 144 R0
SYMATTR InstName U8
SYMBOL res 1712 160 R90
WINDOW 0 0 56 VBottom 2
WINDOW 3 32 56 VTop 2
SYMATTR InstName R13
SYMATTR Value 3k
SYMBOL res 1536 288 R90
WINDOW 0 0 56 VBottom 2
WINDOW 3 32 56 VTop 2
SYMATTR InstName R14
SYMATTR Value 3k
SYMBOL res 1712 288 R90
WINDOW 0 0 56 VBottom 2
WINDOW 3 32 56 VTop 2
SYMATTR InstName R15
SYMATTR Value 3k
SYMBOL res 1888 288 R90
WINDOW 0 0 56 VBottom 2
WINDOW 3 32 56 VTop 2
SYMATTR InstName R16
SYMATTR Value 1.5k
SYMBOL res 2096 288 R90
WINDOW 0 0 56 VBottom 2
WINDOW 3 32 56 VTop 2
SYMATTR InstName R17
SYMATTR Value 4.5k
SYMBOL OpAmps\\OP482 1664 496 R0
SYMATTR InstName U9
SYMBOL OpAmps\\OP482 2048 448 R0
SYMATTR InstName U10
SYMBOL diode 1760 400 R180
WINDOW 0 24 64 Left 2
WINDOW 3 24 0 Left 2
SYMATTR InstName D1
SYMBOL diode 1616 464 R270
WINDOW 0 32 32 VTop 2
WINDOW 3 0 32 VBottom 2
SYMATTR InstName D2
TEXT -832 768 Left 2 ;.op
TEXT -832 792 Left 2 !.options noopiter
TEXT -840 840 Left 2 !.ac dec 100 10 1Meg
