Version 4.1
SHEET 1 1256 972
WIRE -1520 -960 -1520 -992
WIRE -1616 -880 -1632 -880
WIRE -1392 -880 -1424 -880
WIRE -1280 -880 -1312 -880
WIRE -1616 -816 -1680 -816
WIRE -1584 -672 -1584 -704
WIRE -1456 -672 -1456 -704
WIRE -1504 -464 -1504 -496
WIRE -1632 -384 -1632 -880
WIRE -1600 -384 -1632 -384
WIRE -1376 -384 -1408 -384
WIRE -1280 -384 -1280 -880
WIRE -1280 -384 -1296 -384
WIRE -1600 -320 -1664 -320
WIRE -1568 -176 -1568 -208
WIRE -1440 -176 -1440 -208
WIRE -1488 -80 -1488 -112
WIRE -1632 0 -1632 -384
WIRE -1584 0 -1632 0
WIRE -1360 0 -1392 0
WIRE -1280 0 -1280 -384
WIRE -1584 64 -1648 64
WIRE -1552 208 -1552 176
WIRE -1424 208 -1424 176
WIRE -1504 272 -1504 240
WIRE -1632 352 -1632 0
WIRE -1600 352 -1632 352
WIRE -1360 352 -1408 352
WIRE -1280 352 -1280 0
WIRE -1600 416 -1664 416
WIRE -1568 560 -1568 528
WIRE -1440 560 -1440 528
WIRE -1744 640 -1824 640
WIRE -1632 640 -1632 352
WIRE -1632 640 -1664 640
WIRE -1600 640 -1632 640
WIRE -1280 656 -1280 352
WIRE -1280 656 -1536 656
WIRE -1248 656 -1280 656
WIRE -1600 672 -1632 672
WIRE -1632 704 -1632 672
FLAG -1248 656 Vout
FLAG -1936 240 0
FLAG -1776 240 0
FLAG -1936 160 +5
FLAG -1776 160 -5
FLAG -1824 720 0
FLAG -1088 96 S4
FLAG -928 96 S3
FLAG -736 96 S2
FLAG -1088 176 0
FLAG -928 176 0
FLAG -736 176 0
FLAG -1456 -672 0
FLAG -1520 -992 +5
FLAG -1584 -672 -5
FLAG -1680 -816 S4
FLAG -1440 -176 0
FLAG -1504 -496 +5
FLAG -1568 -176 -5
FLAG -1664 -320 S3
FLAG -1424 208 0
FLAG -1488 -112 +5
FLAG -1552 208 -5
FLAG -1648 64 S2
FLAG -1440 560 0
FLAG -1504 240 +5
FLAG -1664 416 S1
FLAG -608 96 S1
FLAG -608 176 0
FLAG -1632 704 0
FLAG -1568 624 +5
FLAG -1568 688 -5
FLAG -1568 560 -5
SYMBOL res -1648 624 R90
WINDOW 0 0 56 VBottom 2
WINDOW 3 32 56 VTop 2
SYMATTR InstName R1
SYMATTR Value 2k
SYMBOL res -1264 336 R90
WINDOW 0 0 56 VBottom 2
WINDOW 3 32 56 VTop 2
SYMATTR InstName R2
SYMATTR Value 4.7k
SYMBOL res -1264 -16 R90
WINDOW 0 0 56 VBottom 2
WINDOW 3 32 56 VTop 2
SYMATTR InstName R3
SYMATTR Value 5.6k
SYMBOL res -1280 -400 R90
WINDOW 0 0 56 VBottom 2
WINDOW 3 32 56 VTop 2
SYMATTR InstName R4
SYMATTR Value 7.5k
SYMBOL res -1296 -896 R90
WINDOW 0 0 56 VBottom 2
WINDOW 3 32 56 VTop 2
SYMATTR InstName R5
SYMATTR Value 9.1k
SYMBOL voltage -1936 144 R0
SYMATTR InstName V1
SYMATTR Value +5V
SYMBOL voltage -1776 144 R0
SYMATTR InstName V2
SYMATTR Value -5V
SYMBOL voltage -1824 624 R0
WINDOW 123 24 124 Left 2
WINDOW 39 0 0 Left 0
WINDOW 3 24 44 Left 2
SYMATTR Value2 AC 1
SYMATTR Value 0
SYMATTR InstName V3
SYMBOL voltage -1088 80 R0
WINDOW 123 0 0 Left 0
WINDOW 39 0 0 Left 0
SYMATTR InstName V4
SYMATTR Value 0
SYMBOL voltage -928 80 R0
WINDOW 123 0 0 Left 0
WINDOW 39 0 0 Left 0
SYMATTR InstName V5
SYMATTR Value 0
SYMBOL voltage -736 80 R0
WINDOW 123 0 0 Left 0
WINDOW 39 0 0 Left 0
SYMATTR InstName V6
SYMATTR Value 0
SYMBOL Switches\\ADG601 -1520 -832 R0
SYMATTR InstName U2
SYMBOL Switches\\ADG601 -1504 -336 R0
SYMATTR InstName U3
SYMBOL Switches\\ADG601 -1488 48 R0
SYMATTR InstName U4
SYMBOL Switches\\ADG601 -1504 400 R0
SYMATTR InstName U5
SYMBOL voltage -608 80 R0
WINDOW 123 0 0 Left 0
WINDOW 39 0 0 Left 0
SYMATTR InstName V8
SYMATTR Value 5
SYMBOL OpAmps\\OP482 -1568 592 R0
SYMATTR InstName U6
TEXT -2056 -320 Left 2 !.ac dec 100 1 10Meg
TEXT -2056 -280 Left 2 ;.op
TEXT -2048 -368 Left 2 !.libopamp.sub
