Version 4.1
SHEET 1 1772 1068
WIRE 64 -656 64 -688
WIRE -32 -576 -48 -576
WIRE 192 -576 160 -576
WIRE 304 -576 272 -576
WIRE -32 -512 -96 -512
WIRE 0 -368 0 -400
WIRE 128 -368 128 -400
WIRE 80 -160 80 -192
WIRE -48 -80 -48 -576
WIRE -16 -80 -48 -80
WIRE 208 -80 176 -80
WIRE 304 -80 304 -576
WIRE 304 -80 288 -80
WIRE -16 -16 -80 -16
WIRE 16 128 16 96
WIRE 144 128 144 96
WIRE 96 224 96 192
WIRE -48 304 -48 -80
WIRE 0 304 -48 304
WIRE 224 304 192 304
WIRE 304 304 304 -80
WIRE 0 368 -64 368
WIRE 32 512 32 480
WIRE 160 512 160 480
WIRE 80 576 80 544
WIRE -48 656 -48 304
WIRE -16 656 -48 656
WIRE 224 656 176 656
WIRE 304 656 304 304
WIRE -16 720 -80 720
WIRE 16 864 16 832
WIRE 144 864 144 832
WIRE -160 944 -240 944
WIRE -48 944 -48 656
WIRE -48 944 -80 944
WIRE -16 944 -48 944
WIRE 304 960 304 656
WIRE 304 960 48 960
WIRE 336 960 304 960
WIRE -16 976 -48 976
WIRE -48 1008 -48 976
FLAG 336 960 Vout
FLAG -48 1008 0
FLAG 16 928 +5
FLAG 16 992 -5
FLAG -352 544 0
FLAG -192 544 0
FLAG -352 464 +5
FLAG -192 464 -5
FLAG -240 1024 0
FLAG 496 400 S4
FLAG 656 400 S3
FLAG 848 400 S2
FLAG 992 400 S1
FLAG 496 480 0
FLAG 656 480 0
FLAG 848 480 0
FLAG 992 480 0
FLAG 128 -368 0
FLAG 64 -688 +5
FLAG 0 -368 -5
FLAG -96 -512 S4
FLAG 144 128 0
FLAG 80 -192 +5
FLAG 16 128 -5
FLAG -80 -16 S3
FLAG 160 512 0
FLAG 96 192 +5
FLAG 32 512 -5
FLAG -64 368 S2
FLAG 144 864 0
FLAG 80 544 +5
FLAG 16 864 -5
FLAG -80 720 S1
SYMBOL OpAmps\\OP482 16 896 R0
SYMATTR InstName U1
SYMBOL res -64 928 R90
WINDOW 0 0 56 VBottom 2
WINDOW 3 32 56 VTop 2
SYMATTR InstName R1
SYMATTR Value 2k
SYMBOL res 320 640 R90
WINDOW 0 0 56 VBottom 2
WINDOW 3 32 56 VTop 2
SYMATTR InstName R2
SYMATTR Value 4.7k
SYMBOL res 320 288 R90
WINDOW 0 0 56 VBottom 2
WINDOW 3 32 56 VTop 2
SYMATTR InstName R3
SYMATTR Value 5.6k
SYMBOL res 304 -96 R90
WINDOW 0 0 56 VBottom 2
WINDOW 3 32 56 VTop 2
SYMATTR InstName R4
SYMATTR Value 7.5k
SYMBOL res 288 -592 R90
WINDOW 0 0 56 VBottom 2
WINDOW 3 32 56 VTop 2
SYMATTR InstName R5
SYMATTR Value 9.1k
SYMBOL voltage -352 448 R0
SYMATTR InstName V1
SYMATTR Value +5V
SYMBOL voltage -192 448 R0
SYMATTR InstName V2
SYMATTR Value -5V
SYMBOL voltage -240 928 R0
WINDOW 123 24 124 Left 2
WINDOW 39 0 0 Left 0
WINDOW 3 24 44 Left 2
SYMATTR Value2 AC 1
SYMATTR Value SINE(0 512m 13.84K)
SYMATTR InstName V3
SYMBOL voltage 496 384 R0
WINDOW 123 0 0 Left 0
WINDOW 39 0 0 Left 0
SYMATTR InstName V4
SYMATTR Value 5
SYMBOL voltage 656 384 R0
WINDOW 123 0 0 Left 0
WINDOW 39 0 0 Left 0
SYMATTR InstName V5
SYMATTR Value 0
SYMBOL voltage 848 384 R0
WINDOW 123 0 0 Left 0
WINDOW 39 0 0 Left 0
SYMATTR InstName V6
SYMATTR Value 0
SYMBOL voltage 992 384 R0
WINDOW 123 0 0 Left 0
WINDOW 39 0 0 Left 0
SYMATTR InstName V7
SYMATTR Value 0
SYMBOL Switches\\ADG601 64 -528 R0
SYMATTR InstName U2
SYMBOL Switches\\ADG601 80 -32 R0
SYMATTR InstName U3
SYMBOL Switches\\ADG601 96 352 R0
SYMATTR InstName U4
SYMBOL Switches\\ADG601 80 704 R0
SYMATTR InstName U5
TEXT 1472 592 Left 2 !.four 13.84k 10-1 V(Vout)
TEXT 1472 552 Left 2 !.tran 50ms
TEXT -456 -88 Left 2 ;.op
