Version 4.1
SHEET 1 1096 1068
WIRE 112 -656 112 -688
WIRE 16 -576 0 -576
WIRE 240 -576 208 -576
WIRE 352 -576 320 -576
WIRE 16 -512 -48 -512
WIRE 48 -368 48 -400
WIRE 176 -368 176 -400
WIRE 128 -160 128 -192
WIRE 0 -80 0 -576
WIRE 32 -80 0 -80
WIRE 256 -80 224 -80
WIRE 352 -80 352 -576
WIRE 352 -80 336 -80
WIRE 32 -16 -32 -16
WIRE 64 128 64 96
WIRE 192 128 192 96
WIRE 144 224 144 192
WIRE 0 304 0 -80
WIRE 48 304 0 304
WIRE 272 304 240 304
WIRE 352 304 352 -80
WIRE 48 368 -16 368
WIRE 80 512 80 480
WIRE 208 512 208 480
WIRE 128 576 128 544
WIRE 0 656 0 304
WIRE 32 656 0 656
WIRE 272 656 224 656
WIRE 352 656 352 304
WIRE 32 720 -32 720
WIRE 64 864 64 832
WIRE 192 864 192 832
WIRE -112 944 -192 944
WIRE 0 944 0 656
WIRE 0 944 -32 944
WIRE 32 944 0 944
WIRE 352 960 352 656
WIRE 352 960 96 960
WIRE 384 960 352 960
WIRE 32 976 0 976
WIRE 0 1008 0 976
FLAG 384 960 Vout
FLAG 0 1008 0
FLAG 64 928 +5
FLAG 64 992 -5
FLAG -304 544 0
FLAG -144 544 0
FLAG -304 464 +5
FLAG -144 464 -5
FLAG -192 1024 0
FLAG 544 400 S4
FLAG 704 400 S3
FLAG 896 400 S2
FLAG 1040 400 S1
FLAG 544 480 0
FLAG 704 480 0
FLAG 896 480 0
FLAG 1040 480 0
FLAG 176 -368 0
FLAG 112 -688 +5
FLAG 48 -368 -5
FLAG -48 -512 S4
FLAG 192 128 0
FLAG 128 -192 +5
FLAG 64 128 -5
FLAG -32 -16 S3
FLAG 208 512 0
FLAG 144 192 +5
FLAG 80 512 -5
FLAG -16 368 S2
FLAG 192 864 0
FLAG 128 544 +5
FLAG 64 864 -5
FLAG -32 720 S1
SYMBOL OpAmps\\OP482 64 896 R0
SYMATTR InstName U1
SYMBOL res -16 928 R90
WINDOW 0 0 56 VBottom 2
WINDOW 3 32 56 VTop 2
SYMATTR InstName R1
SYMATTR Value 2k
SYMBOL res 368 640 R90
WINDOW 0 0 56 VBottom 2
WINDOW 3 32 56 VTop 2
SYMATTR InstName R2
SYMATTR Value 4.7k
SYMBOL res 368 288 R90
WINDOW 0 0 56 VBottom 2
WINDOW 3 32 56 VTop 2
SYMATTR InstName R3
SYMATTR Value 5.6k
SYMBOL res 352 -96 R90
WINDOW 0 0 56 VBottom 2
WINDOW 3 32 56 VTop 2
SYMATTR InstName R4
SYMATTR Value 7.5k
SYMBOL res 336 -592 R90
WINDOW 0 0 56 VBottom 2
WINDOW 3 32 56 VTop 2
SYMATTR InstName R5
SYMATTR Value 9.1k
SYMBOL voltage -304 448 R0
SYMATTR InstName V1
SYMATTR Value +5V
SYMBOL voltage -144 448 R0
SYMATTR InstName V2
SYMATTR Value -5V
SYMBOL voltage -192 928 R0
WINDOW 123 24 124 Left 2
WINDOW 39 0 0 Left 0
WINDOW 3 24 44 Left 2
SYMATTR Value2 AC 1
SYMATTR Value 0
SYMATTR InstName V3
SYMBOL voltage 544 384 R0
WINDOW 123 0 0 Left 0
WINDOW 39 0 0 Left 0
SYMATTR InstName V4
SYMATTR Value 5
SYMBOL voltage 704 384 R0
WINDOW 123 0 0 Left 0
WINDOW 39 0 0 Left 0
SYMATTR InstName V5
SYMATTR Value 0
SYMBOL voltage 896 384 R0
WINDOW 123 0 0 Left 0
WINDOW 39 0 0 Left 0
SYMATTR InstName V6
SYMATTR Value 0
SYMBOL voltage 1040 384 R0
WINDOW 123 0 0 Left 0
WINDOW 39 0 0 Left 0
SYMATTR InstName V7
SYMATTR Value 0
SYMBOL Switches\\ADG601 112 -528 R0
SYMATTR InstName U2
SYMBOL Switches\\ADG601 128 -32 R0
SYMATTR InstName U3
SYMBOL Switches\\ADG601 144 352 R0
SYMATTR InstName U4
SYMBOL Switches\\ADG601 128 704 R0
SYMATTR InstName U5
TEXT -424 -16 Left 2 !.ac dec 100 1 10Meg
TEXT -424 24 Left 2 ;.op
