Version 4.1
SHEET 1 1064 1068
WIRE 80 -656 80 -688
WIRE -16 -576 -32 -576
WIRE 208 -576 176 -576
WIRE 320 -576 288 -576
WIRE -16 -512 -80 -512
WIRE 16 -368 16 -400
WIRE 144 -368 144 -400
WIRE 96 -160 96 -192
WIRE -32 -80 -32 -576
WIRE 0 -80 -32 -80
WIRE 224 -80 192 -80
WIRE 320 -80 320 -576
WIRE 320 -80 304 -80
WIRE 0 -16 -64 -16
WIRE 32 128 32 96
WIRE 160 128 160 96
WIRE 112 224 112 192
WIRE -32 304 -32 -80
WIRE 16 304 -32 304
WIRE 240 304 208 304
WIRE 320 304 320 -80
WIRE 16 368 -48 368
WIRE 48 512 48 480
WIRE 176 512 176 480
WIRE 96 576 96 544
WIRE -32 656 -32 304
WIRE 0 656 -32 656
WIRE 240 656 192 656
WIRE 320 656 320 304
WIRE 0 720 -64 720
WIRE 32 864 32 832
WIRE 160 864 160 832
WIRE -144 944 -224 944
WIRE -32 944 -32 656
WIRE -32 944 -64 944
WIRE 0 944 -32 944
WIRE 320 960 320 656
WIRE 320 960 64 960
WIRE 352 960 320 960
WIRE 0 976 -32 976
WIRE -32 1008 -32 976
FLAG 352 960 Vout
FLAG -32 1008 0
FLAG 32 928 +5
FLAG 32 992 -5
FLAG -336 544 0
FLAG -176 544 0
FLAG -336 464 +5
FLAG -176 464 -5
FLAG -224 1024 0
FLAG 512 400 S4
FLAG 672 400 S3
FLAG 864 400 S2
FLAG 1008 400 S1
FLAG 512 480 0
FLAG 672 480 0
FLAG 864 480 0
FLAG 1008 480 0
FLAG 144 -368 0
FLAG 80 -688 +5
FLAG 16 -368 -5
FLAG -80 -512 S4
FLAG 160 128 0
FLAG 96 -192 +5
FLAG 32 128 -5
FLAG -64 -16 S3
FLAG 176 512 0
FLAG 112 192 +5
FLAG 48 512 -5
FLAG -48 368 S2
FLAG 160 864 0
FLAG 96 544 +5
FLAG 32 864 -5
FLAG -64 720 S1
SYMBOL OpAmps\\OP482 32 896 R0
SYMATTR InstName U1
SYMBOL res -48 928 R90
WINDOW 0 0 56 VBottom 2
WINDOW 3 32 56 VTop 2
SYMATTR InstName R1
SYMATTR Value 2k
SYMBOL res 336 640 R90
WINDOW 0 0 56 VBottom 2
WINDOW 3 32 56 VTop 2
SYMATTR InstName R2
SYMATTR Value 4.7k
SYMBOL res 336 288 R90
WINDOW 0 0 56 VBottom 2
WINDOW 3 32 56 VTop 2
SYMATTR InstName R3
SYMATTR Value 5.6k
SYMBOL res 320 -96 R90
WINDOW 0 0 56 VBottom 2
WINDOW 3 32 56 VTop 2
SYMATTR InstName R4
SYMATTR Value 7.5k
SYMBOL res 304 -592 R90
WINDOW 0 0 56 VBottom 2
WINDOW 3 32 56 VTop 2
SYMATTR InstName R5
SYMATTR Value 9.1k
SYMBOL voltage -336 448 R0
SYMATTR InstName V1
SYMATTR Value +5V
SYMBOL voltage -176 448 R0
SYMATTR InstName V2
SYMATTR Value -5V
SYMBOL voltage -224 928 R0
WINDOW 123 24 124 Left 2
WINDOW 39 0 0 Left 0
WINDOW 3 24 44 Left 2
SYMATTR Value2 AC 1
SYMATTR Value 0
SYMATTR InstName V3
SYMBOL voltage 512 384 R0
WINDOW 123 0 0 Left 0
WINDOW 39 0 0 Left 0
SYMATTR InstName V4
SYMATTR Value 0
SYMBOL voltage 672 384 R0
WINDOW 123 0 0 Left 0
WINDOW 39 0 0 Left 0
SYMATTR InstName V5
SYMATTR Value 5
SYMBOL voltage 864 384 R0
WINDOW 123 0 0 Left 0
WINDOW 39 0 0 Left 0
SYMATTR InstName V6
SYMATTR Value 0
SYMBOL voltage 1008 384 R0
WINDOW 123 0 0 Left 0
WINDOW 39 0 0 Left 0
SYMATTR InstName V7
SYMATTR Value 0
SYMBOL Switches\\ADG601 80 -528 R0
SYMATTR InstName U2
SYMBOL Switches\\ADG601 96 -32 R0
SYMATTR InstName U3
SYMBOL Switches\\ADG601 112 352 R0
SYMATTR InstName U4
SYMBOL Switches\\ADG601 96 704 R0
SYMATTR InstName U5
TEXT -456 -16 Left 2 !.ac dec 100 1 10Meg
TEXT -456 24 Left 2 ;.op
