Version 4.1
SHEET 1 880 680
WIRE -1904 -1472 -1904 -1504
WIRE -2000 -1392 -2016 -1392
WIRE -1776 -1392 -1808 -1392
WIRE -1664 -1392 -1696 -1392
WIRE -2000 -1328 -2064 -1328
WIRE -1968 -1184 -1968 -1216
WIRE -1840 -1184 -1840 -1216
WIRE -1888 -976 -1888 -1008
WIRE -2016 -896 -2016 -1392
WIRE -1984 -896 -2016 -896
WIRE -1760 -896 -1792 -896
WIRE -1664 -896 -1664 -1392
WIRE -1664 -896 -1680 -896
WIRE -1984 -832 -2048 -832
WIRE -1952 -688 -1952 -720
WIRE -1824 -688 -1824 -720
WIRE -1872 -592 -1872 -624
WIRE -2016 -512 -2016 -896
WIRE -1968 -512 -2016 -512
WIRE -1744 -512 -1776 -512
WIRE -1664 -512 -1664 -896
WIRE -1968 -448 -2032 -448
WIRE -1936 -304 -1936 -336
WIRE -1808 -304 -1808 -336
WIRE -1888 -240 -1888 -272
WIRE -2016 -160 -2016 -512
WIRE -1984 -160 -2016 -160
WIRE -1744 -160 -1792 -160
WIRE -1664 -160 -1664 -512
WIRE -1984 -96 -2048 -96
WIRE -1952 48 -1952 16
WIRE -1824 48 -1824 16
WIRE -2128 128 -2208 128
WIRE -2016 128 -2016 -160
WIRE -2016 128 -2048 128
WIRE -1984 128 -2016 128
WIRE -1664 144 -1664 -160
WIRE -1664 144 -1920 144
WIRE -1632 144 -1664 144
WIRE -1984 160 -2016 160
WIRE -2016 192 -2016 160
FLAG -1632 144 Vout
FLAG -2016 192 0
FLAG -1952 112 +5
FLAG -1952 176 -5
FLAG -2320 -272 0
FLAG -2160 -272 0
FLAG -2320 -352 +5
FLAG -2160 -352 -5
FLAG -2208 208 0
FLAG -1472 -416 S4
FLAG -1312 -416 S3
FLAG -1120 -416 S2
FLAG -976 -416 S1
FLAG -1472 -336 0
FLAG -1312 -336 0
FLAG -1120 -336 0
FLAG -976 -336 0
FLAG -1840 -1184 0
FLAG -1904 -1504 +5
FLAG -1968 -1184 -5
FLAG -2064 -1328 S4
FLAG -1824 -688 0
FLAG -1888 -1008 +5
FLAG -1952 -688 -5
FLAG -2048 -832 S3
FLAG -1808 -304 0
FLAG -1872 -624 +5
FLAG -1936 -304 -5
FLAG -2032 -448 S2
FLAG -1824 48 0
FLAG -1888 -272 +5
FLAG -1952 48 -5
FLAG -2048 -96 S1
SYMBOL OpAmps\\OP482 -1952 80 R0
SYMATTR InstName U3
SYMBOL res -2032 112 R90
WINDOW 0 0 56 VBottom 2
WINDOW 3 32 56 VTop 2
SYMATTR InstName R5
SYMATTR Value 2k
SYMBOL res -1648 -176 R90
WINDOW 0 0 56 VBottom 2
WINDOW 3 32 56 VTop 2
SYMATTR InstName R6
SYMATTR Value 4.7k
SYMBOL res -1648 -528 R90
WINDOW 0 0 56 VBottom 2
WINDOW 3 32 56 VTop 2
SYMATTR InstName R7
SYMATTR Value 5.6k
SYMBOL res -1664 -912 R90
WINDOW 0 0 56 VBottom 2
WINDOW 3 32 56 VTop 2
SYMATTR InstName R8
SYMATTR Value 7.5k
SYMBOL res -1680 -1408 R90
WINDOW 0 0 56 VBottom 2
WINDOW 3 32 56 VTop 2
SYMATTR InstName R9
SYMATTR Value 9.1k
SYMBOL voltage -2320 -368 R0
SYMATTR InstName V4
SYMATTR Value +5V
SYMBOL voltage -2160 -368 R0
SYMATTR InstName V5
SYMATTR Value -5V
SYMBOL voltage -2208 112 R0
WINDOW 123 24 124 Left 2
WINDOW 39 0 0 Left 0
WINDOW 3 24 44 Left 2
SYMATTR Value2 AC 1
SYMATTR Value SINE(0 521m 13.84K)
SYMATTR InstName V6
SYMBOL voltage -1472 -432 R0
WINDOW 123 0 0 Left 0
WINDOW 39 0 0 Left 0
SYMATTR InstName V7
SYMATTR Value 0
SYMBOL voltage -1312 -432 R0
WINDOW 123 0 0 Left 0
WINDOW 39 0 0 Left 0
SYMATTR InstName V8
SYMATTR Value 0
SYMBOL voltage -1120 -432 R0
WINDOW 123 0 0 Left 0
WINDOW 39 0 0 Left 0
SYMATTR InstName V9
SYMATTR Value 0
SYMBOL voltage -976 -432 R0
WINDOW 123 0 0 Left 0
WINDOW 39 0 0 Left 0
SYMATTR InstName V10
SYMATTR Value 5
SYMBOL Switches\\ADG601 -1904 -1344 R0
SYMATTR InstName U4
SYMBOL Switches\\ADG601 -1888 -848 R0
SYMATTR InstName U5
SYMBOL Switches\\ADG601 -1872 -464 R0
SYMATTR InstName U6
SYMBOL Switches\\ADG601 -1888 -112 R0
SYMATTR InstName U7
TEXT -496 -224 Left 2 !.four 13.84k 10-1 V(Vout)
TEXT -496 -264 Left 2 !.tran 50ms
TEXT -2424 -904 Left 2 ;.op
