Version 4.1
SHEET 1 1160 1052
WIRE -96 -672 -96 -704
WIRE -192 -592 -208 -592
WIRE 32 -592 0 -592
WIRE 144 -592 112 -592
WIRE -192 -528 -256 -528
WIRE -160 -384 -160 -416
WIRE -32 -384 -32 -416
WIRE -80 -176 -80 -208
WIRE -208 -96 -208 -592
WIRE -176 -96 -208 -96
WIRE 48 -96 16 -96
WIRE 144 -96 144 -592
WIRE 144 -96 128 -96
WIRE -176 -32 -240 -32
WIRE -144 112 -144 80
WIRE -16 112 -16 80
WIRE -64 208 -64 176
WIRE -208 288 -208 -96
WIRE -160 288 -208 288
WIRE 64 288 32 288
WIRE 144 288 144 -96
WIRE -160 352 -224 352
WIRE -128 496 -128 464
WIRE 0 496 0 464
WIRE -80 560 -80 528
WIRE -208 640 -208 288
WIRE -176 640 -208 640
WIRE 64 640 16 640
WIRE 144 640 144 288
WIRE -176 704 -240 704
WIRE -144 848 -144 816
WIRE -16 848 -16 816
WIRE -320 928 -400 928
WIRE -208 928 -208 640
WIRE -208 928 -240 928
WIRE -176 928 -208 928
WIRE 144 944 144 640
WIRE 144 944 -112 944
WIRE 176 944 144 944
WIRE -176 960 -208 960
WIRE -208 992 -208 960
FLAG 176 944 Vout
FLAG -208 992 0
FLAG -144 912 +5
FLAG -144 976 -5
FLAG -512 528 0
FLAG -352 528 0
FLAG -512 448 +5
FLAG -352 448 -5
FLAG -400 1008 0
FLAG 336 384 S4
FLAG 496 384 S3
FLAG 688 384 S2
FLAG 832 384 S1
FLAG 336 464 0
FLAG 496 464 0
FLAG 688 464 0
FLAG 832 464 0
FLAG -32 -384 0
FLAG -96 -704 +5
FLAG -160 -384 -5
FLAG -256 -528 S4
FLAG -16 112 0
FLAG -80 -208 +5
FLAG -144 112 -5
FLAG -240 -32 S3
FLAG 0 496 0
FLAG -64 176 +5
FLAG -128 496 -5
FLAG -224 352 S2
FLAG -16 848 0
FLAG -80 528 +5
FLAG -144 848 -5
FLAG -240 704 S1
SYMBOL OpAmps\\OP482 -144 880 R0
SYMATTR InstName U1
SYMBOL res -224 912 R90
WINDOW 0 0 56 VBottom 2
WINDOW 3 32 56 VTop 2
SYMATTR InstName R1
SYMATTR Value 2k
SYMBOL res 160 624 R90
WINDOW 0 0 56 VBottom 2
WINDOW 3 32 56 VTop 2
SYMATTR InstName R2
SYMATTR Value 4.7k
SYMBOL res 160 272 R90
WINDOW 0 0 56 VBottom 2
WINDOW 3 32 56 VTop 2
SYMATTR InstName R3
SYMATTR Value 5.6k
SYMBOL res 144 -112 R90
WINDOW 0 0 56 VBottom 2
WINDOW 3 32 56 VTop 2
SYMATTR InstName R4
SYMATTR Value 7.5k
SYMBOL res 128 -608 R90
WINDOW 0 0 56 VBottom 2
WINDOW 3 32 56 VTop 2
SYMATTR InstName R5
SYMATTR Value 9.1k
SYMBOL voltage -512 432 R0
SYMATTR InstName V1
SYMATTR Value +5V
SYMBOL voltage -352 432 R0
SYMATTR InstName V2
SYMATTR Value -5V
SYMBOL voltage -400 912 R0
WINDOW 123 24 124 Left 2
WINDOW 39 0 0 Left 0
WINDOW 3 24 44 Left 2
SYMATTR Value2 AC 1
SYMATTR Value 1
SYMATTR InstName V3
SYMBOL voltage 336 368 R0
WINDOW 123 0 0 Left 0
WINDOW 39 0 0 Left 0
SYMATTR InstName V4
SYMATTR Value 5
SYMBOL voltage 496 368 R0
WINDOW 123 0 0 Left 0
WINDOW 39 0 0 Left 0
SYMATTR InstName V5
SYMATTR Value 0
SYMBOL voltage 688 368 R0
WINDOW 123 0 0 Left 0
WINDOW 39 0 0 Left 0
SYMATTR InstName V6
SYMATTR Value 0
SYMBOL voltage 832 368 R0
WINDOW 123 0 0 Left 0
WINDOW 39 0 0 Left 0
SYMATTR InstName V7
SYMATTR Value 0
SYMBOL Switches\\ADG601 -96 -544 R0
SYMATTR InstName U2
SYMBOL Switches\\ADG601 -80 -48 R0
SYMATTR InstName U3
SYMBOL Switches\\ADG601 -64 336 R0
SYMATTR InstName U4
SYMBOL Switches\\ADG601 -80 688 R0
SYMATTR InstName U5
TEXT -632 -32 Left 2 ;.ac dec 100 1 10Meg
TEXT -632 8 Left 2 !.op
