Version 4.1
SHEET 1 936 988
WIRE -48 -736 -48 -768
WIRE -144 -656 -160 -656
WIRE 80 -656 48 -656
WIRE 192 -656 160 -656
WIRE -144 -592 -208 -592
WIRE -112 -448 -112 -480
WIRE 16 -448 16 -480
WIRE -32 -240 -32 -272
WIRE -160 -160 -160 -656
WIRE -128 -160 -160 -160
WIRE 96 -160 64 -160
WIRE 192 -160 192 -656
WIRE 192 -160 176 -160
WIRE -128 -96 -192 -96
WIRE -96 48 -96 16
WIRE 32 48 32 16
WIRE -16 144 -16 112
WIRE -160 224 -160 -160
WIRE -112 224 -160 224
WIRE 112 224 80 224
WIRE 192 224 192 -160
WIRE -112 288 -176 288
WIRE -80 432 -80 400
WIRE 48 432 48 400
WIRE -32 496 -32 464
WIRE -160 576 -160 224
WIRE -128 576 -160 576
WIRE 112 576 64 576
WIRE 192 576 192 224
WIRE -128 640 -192 640
WIRE -96 784 -96 752
WIRE 32 784 32 752
WIRE -272 864 -352 864
WIRE -160 864 -160 576
WIRE -160 864 -192 864
WIRE -128 864 -160 864
WIRE 192 880 192 576
WIRE 192 880 -64 880
WIRE 224 880 192 880
WIRE -128 896 -160 896
WIRE -160 928 -160 896
FLAG 224 880 Vout
FLAG -160 928 0
FLAG -96 848 +5
FLAG -96 912 -5
FLAG -464 464 0
FLAG -304 464 0
FLAG -464 384 +5
FLAG -304 384 -5
FLAG -352 944 0
FLAG 384 320 S4
FLAG 544 320 S3
FLAG 736 320 S2
FLAG 880 320 S1
FLAG 384 400 0
FLAG 544 400 0
FLAG 736 400 0
FLAG 880 400 0
FLAG 16 -448 0
FLAG -48 -768 +5
FLAG -112 -448 -5
FLAG -208 -592 S4
FLAG 32 48 0
FLAG -32 -272 +5
FLAG -96 48 -5
FLAG -192 -96 S3
FLAG 48 432 0
FLAG -16 112 +5
FLAG -80 432 -5
FLAG -176 288 S2
FLAG 32 784 0
FLAG -32 464 +5
FLAG -96 784 -5
FLAG -192 640 S1
SYMBOL OpAmps\\OP482 -96 816 R0
SYMATTR InstName U1
SYMBOL res -176 848 R90
WINDOW 0 0 56 VBottom 2
WINDOW 3 32 56 VTop 2
SYMATTR InstName R1
SYMATTR Value 2k
SYMBOL res 208 560 R90
WINDOW 0 0 56 VBottom 2
WINDOW 3 32 56 VTop 2
SYMATTR InstName R2
SYMATTR Value 4.7k
SYMBOL res 208 208 R90
WINDOW 0 0 56 VBottom 2
WINDOW 3 32 56 VTop 2
SYMATTR InstName R3
SYMATTR Value 5.6k
SYMBOL res 192 -176 R90
WINDOW 0 0 56 VBottom 2
WINDOW 3 32 56 VTop 2
SYMATTR InstName R4
SYMATTR Value 7.5k
SYMBOL res 176 -672 R90
WINDOW 0 0 56 VBottom 2
WINDOW 3 32 56 VTop 2
SYMATTR InstName R5
SYMATTR Value 9.1k
SYMBOL voltage -464 368 R0
SYMATTR InstName V1
SYMATTR Value +5V
SYMBOL voltage -304 368 R0
SYMATTR InstName V2
SYMATTR Value -5V
SYMBOL voltage -352 848 R0
WINDOW 123 24 124 Left 2
WINDOW 39 0 0 Left 0
WINDOW 3 24 44 Left 2
SYMATTR Value2 AC 1
SYMATTR Value 0
SYMATTR InstName V3
SYMBOL voltage 384 304 R0
WINDOW 123 0 0 Left 0
WINDOW 39 0 0 Left 0
SYMATTR InstName V4
SYMATTR Value 0
SYMBOL voltage 544 304 R0
WINDOW 123 0 0 Left 0
WINDOW 39 0 0 Left 0
SYMATTR InstName V5
SYMATTR Value 0
SYMBOL voltage 736 304 R0
WINDOW 123 0 0 Left 0
WINDOW 39 0 0 Left 0
SYMATTR InstName V6
SYMATTR Value 5
SYMBOL voltage 880 304 R0
WINDOW 123 0 0 Left 0
WINDOW 39 0 0 Left 0
SYMATTR InstName V7
SYMATTR Value 0
SYMBOL Switches\\ADG601 -48 -608 R0
SYMATTR InstName U2
SYMBOL Switches\\ADG601 -32 -112 R0
SYMATTR InstName U3
SYMBOL Switches\\ADG601 -16 272 R0
SYMATTR InstName U4
SYMBOL Switches\\ADG601 -32 624 R0
SYMATTR InstName U5
TEXT -584 -96 Left 2 !.ac dec 100 1 10Meg
TEXT -584 -56 Left 2 ;.op
